Circuit: * D:\Wlementy_i_uklady_elektroniczne\Projekt\zad6p.asc


Date: Fri Apr 30 17:41:47 2021
Total elapsed time: 0.032 seconds.

tnom = 27
temp = 27
method = trap
totiter = 0
traniter = 0
tranpoints = 0
accept = 0
rejected = 0
matrix size = 4
fillins = 0
solver = Normal

