Circuit: * D:\Wlementy_i_uklady_elektroniczne\Projekt\zad6r.asc

.OP point found by inspection.

Date: Sat May 01 10:24:09 2021
Total elapsed time: 0.047 seconds.

tnom = 27
temp = 27
method = modified trap
totiter = 2510
traniter = 2510
tranpoints = 1256
accept = 1212
rejected = 44
matrix size = 3
fillins = 0
solver = Normal
Matrix Compiler1:       3 opcodes  0.0/[0.0]/0.0
Matrix Compiler2: 175 bytes object code size  0.0/0.0/[0.0]

